  
       XFOIL         Version 6.99
  
 Calculated polar for: NACA 2716                                       
  
 1 1 Reynolds number fixed          Mach number fixed         
  
 xtrf =   1.000 (top)        1.000 (bottom)  
 Mach =   0.000     Re =     0.800 e 6     Ncrit =   9.000
  
   alpha    CL        CD       CDp       CM     Top_Xtr  Bot_Xtr
  ------ -------- --------- --------- -------- -------- --------
   4.000   0.7378   0.00884   0.00332  -0.0763   0.3997   0.7608
